
**** 11/15/21 19:03:35 ******* PSpice 17.4.0 (Nov 2018) ******* ID# 0 ********

 Proyecto_Laboratorio_Electronica_Potencia


 ****     CIRCUIT DESCRIPTION


******************************************************************************



 *Cliclo convertidor Trifásico - Monofásico
 *Estudiantes:
                *Jose Fabio Navarro Naranjo 2019049626
                *Emmanuel Naranjo Blanco   2019053605
                *Adrian Dittel Retana             2019007945
 
*Definicion de parametros para la simulacion del circuito

*Entradas
.param V_in={120};  *Tension RMS de entrada por fase
.param f_in={260} ; *Frecuencia de entrada (entre 120Hz y 400Hz)
.param f_out={65} ;*Frecuencia de salida (entre 30Hz y 100Hz))
.param alfa={131}; *Angulo de disparo
.param carga={288} ;*carga a alimentar (resistiva)

*Derivaciones de las entradas
.param V_pico={V_in*sqrt(2)}; *Tension pico en la entrada
.param delay_p={alfa/(360*f_in)}; *Delay para la fase P
.param delay_n={(periodo_in/2)+delay_p}; *Delay para la fase N
.param pw={1/(3*f_in)}; *Tiempo en alto del pulso para activar los SCR (pulse width) 
.param periodo_in={1/f_in}; *Periodo de la seal de entrada
.param periodo_out={1/f_out}; *Periodo de la seal de salida
.param pw_pn={0.5*periodo_out}; *Tiempo en alto de las seales p y n

*Definicion de las entradas de fase 
Van 1 0 Sin(0 {V_pico} {f_in} 0 0 -30); *fase A
Vbn 2 0 Sin(0 {V_pico} {f_in} 0 0 -150); *fase B
Vcn 3 0 Sin(0 {V_pico} {f_in} 0 0 -270); *fase C

*Componentes del circuito

*Para la implemetacion de los SCR se van a utilizar diodos en combinacion con switches que en conjunto simulan el comportamiento deseado

*P Converter (Switches y Diodos)

sw1p 1 4 18 0 smod
dio1p 4 5 dmod

sw3p 2 6 19 0 smod
dio3p 6 5 dmod

sw5p 3 7 20 0 smod
dio5p 7 5 dmod

sw2p 8 9 21 0 smod
dio2p 9 1 dmod

sw4p 8 10 22 0 smod
dio4p 10 2 dmod

sw6p 8 11 23 0 smod
dio6p 11 3 dmod

*N Converter (Switches y Diodos)

sw1n 5 12 24 0 smod
dio1n 12 1 dmod

sw3n 5 13 25 0 smod
dio3n 13 2 dmod

sw5n 5 14 26 0  smod
dio5n 14 3 dmod

sw2n 1 15 27 0 smod
dio2n 15 8 dmod

sw4n 2 16 28 0 smod
dio4n 16 8 dmod

sw6n 3 17 29 0 smod
dio6n 17 8 dmod

*Carga
r_load 5 8 {carga} 

*Control para los switches

*Control P

v1p 18 30 pulse(-5 5 {delay_p} 1ns 1ns {pw} {periodo_in})
v3p 19 30 pulse(-5 5 {delay_p + periodo_in/3} 1ns 1ns {pw} {periodo_in})
v5p 20 30 pulse(-5 5 {delay_p + 2*periodo_in/3} 1ns 1ns {pw} {periodo_in})
v2p 21 30 pulse(-5 5 {delay_p + periodo_in/2} 1ns 1ns {pw} {periodo_in})
v4p 22 30 pulse(-5 5 {delay_p + 5*periodo_in/6} 1ns 1ns {pw} {periodo_in})
v6p 23 30 pulse(-5 5 {delay_p + periodo_in/6} 1ns 1ns {pw} {periodo_in})

vc_p 30 0 pulse(5 -5 0 1ns 1ns {pw_pn} {periodo_out}); *fuente para controlar la fase P

*Control N

v1n 24 31 pulse(-5 5 {delay_n} 1ns 1ns {pw} {periodo_in})
v3n 25 31 pulse(-5 5 {delay_n + periodo_in/3} 1ns 1ns {pw} {periodo_in})
v5n 26 31 pulse(-5 5 {delay_n + 2*periodo_in/3} 1ns 1ns {pw} {periodo_in})
v2n 27 31 pulse(-5 5 {delay_n + periodo_in/2} 1ns 1ns {pw} {periodo_in})
v4n 28 31 pulse(-5 5 {delay_n + 5*periodo_in/6} 1ns 1ns {pw} {periodo_in})
v6n 29 31 pulse(-5 5 {delay_n + periodo_in/6} 1ns 1ns {pw} {periodo_in})

vc_n 31 0 pulse(5 -5 {periodo_out/2} 1ns 1ns {pw_pn} {periodo_out}); *fuente para controlar la fase N

.model smod VSWITCH(Ron=0.001m)
.model dmod d
.tran .1ms 400ms 0ms .1ms uic
.FOUR 65 30 I(Van) V(5,8)
*I(Van) 
*V(5,8)
.probe
.end

**** 11/15/21 19:03:35 ******* PSpice 17.4.0 (Nov 2018) ******* ID# 0 ********

 Proyecto_Laboratorio_Electronica_Potencia


 ****     Diode MODEL PARAMETERS


******************************************************************************




               dmod            
          IS   10.000000E-15 


**** 11/15/21 19:03:35 ******* PSpice 17.4.0 (Nov 2018) ******* ID# 0 ********

 Proyecto_Laboratorio_Electronica_Potencia


 ****     Voltage Controlled Switch MODEL PARAMETERS


******************************************************************************




               smod            
         RON    1.000000E-06 
        ROFF    1.000000E+06 
         VON    1            
        VOFF    0            


**** 11/15/21 19:03:35 ******* PSpice 17.4.0 (Nov 2018) ******* ID# 0 ********

 Proyecto_Laboratorio_Electronica_Potencia


 ****     FOURIER ANALYSIS                 TEMPERATURE =   27.000 DEG C


******************************************************************************



FOURIER COMPONENTS OF TRANSIENT RESPONSE I(Van)



 DC COMPONENT =   1.2080E-05

 HARMONIC   FREQUENCY     FOURIER     NORMALIZED     PHASE     NORMALIZED
    NO         (HZ)      COMPONENT     COMPONENT     (DEG)     PHASE (DEG)

     1    6.5000E+01   9.4167E-03   1.0000E+00  -1.7427E+02   0.0000E+00
     2    1.3000E+02   1.1937E-02   1.2676E+00  -1.6991E+02   1.7862E+02
     3    1.9500E+02   9.1734E-05   9.7416E-03   1.1363E+02   6.3642E+02
     4    2.6000E+02   3.7172E-01   3.9474E+01   9.2344E+01   7.8941E+02
     5    3.2500E+02   2.3679E-02   2.5146E+00  -1.5590E+02   7.1543E+02
     6    3.9000E+02   5.4036E-05   5.7383E-03  -1.6344E+02   8.8216E+02
     7    4.5500E+02   9.1682E-03   9.7361E-01   3.2397E+01   1.2523E+03
     8    5.2000E+02   8.6015E-03   9.1343E-01   3.7333E+01   1.4315E+03
     9    5.8500E+02   6.6381E-05   7.0493E-03   1.6383E+02   1.7322E+03
    10    6.5000E+02   1.2025E-02   1.2770E+00  -1.3166E+02   1.6110E+03
    11    7.1500E+02   2.1223E-02   2.2538E+00  -1.2590E+02   1.7910E+03
    12    7.8000E+02   8.5798E-05   9.1112E-03  -1.0956E+02   1.9816E+03
    13    8.4500E+02   2.5705E-02   2.7297E+00  -1.2109E+02   2.1444E+03
    14    9.1000E+02   1.3037E-02   1.3845E+00  -1.1375E+02   2.3260E+03
    15    9.7500E+02   2.9487E-05   3.1314E-03  -1.1916E+02   2.4948E+03
    16    1.0400E+03   8.5526E-03   9.0824E-01   7.4748E+01   2.8630E+03
    17    1.1050E+03   9.1282E-03   9.6936E-01   7.9244E+01   3.0418E+03
    18    1.1700E+03   9.4787E-05   1.0066E-02  -6.2164E+01   3.0746E+03
    19    1.2350E+03   2.0698E-02   2.1980E+00  -9.0004E+01   3.2210E+03
    20    1.3000E+03   2.2275E-01   2.3655E+01  -7.2288E+01   3.4130E+03
    21    1.3650E+03   4.1003E-05   4.3543E-03   1.2690E+01   3.6723E+03
    22    1.4300E+03   1.3215E-02   1.4033E+00  -7.7764E+01   3.7561E+03
    23    1.4950E+03   9.7168E-03   1.0319E+00  -7.0996E+01   3.9371E+03
    24    1.5600E+03   7.7285E-05   8.2072E-03  -1.3850E+01   4.1685E+03
    25    1.6250E+03   9.0478E-03   9.6082E-01   1.1790E+02   4.4745E+03
    26    1.6900E+03   1.1375E-02   1.2079E+00   1.2227E+02   4.6532E+03
    27    1.7550E+03   7.7214E-05   8.1997E-03   7.3856E+01   4.7790E+03
    28    1.8200E+03   1.3074E-01   1.3883E+01  -5.0937E+01   4.8285E+03
    29    1.8850E+03   2.6439E-02   2.8077E+00   1.3580E+02   5.1895E+03
    30    1.9500E+03   4.1107E-05   4.3653E-03   4.7340E+01   5.2753E+03


     TOTAL HARMONIC DISTORTION =   4.8541E+03 PERCENT

**** 11/15/21 19:03:35 ******* PSpice 17.4.0 (Nov 2018) ******* ID# 0 ********

 Proyecto_Laboratorio_Electronica_Potencia


 ****     FOURIER ANALYSIS                 TEMPERATURE =   27.000 DEG C


******************************************************************************



FOURIER COMPONENTS OF TRANSIENT RESPONSE V(5,8)



 DC COMPONENT =  -5.4479E-06

 HARMONIC   FREQUENCY     FOURIER     NORMALIZED     PHASE     NORMALIZED
    NO         (HZ)      COMPONENT     COMPONENT     (DEG)     PHASE (DEG)

     1    6.5000E+01   1.2064E+02   1.0000E+00  -1.7996E+02   0.0000E+00
     2    1.3000E+02   1.5024E+00   1.2454E-02  -8.4820E+01   2.7509E+02
     3    1.9500E+02   4.1056E+01   3.4032E-01   1.7975E+02   7.1962E+02
     4    2.6000E+02   4.9621E+00   4.1131E-02   1.0812E+02   8.2794E+02
     5    3.2500E+02   2.6762E+01   2.2183E-01   1.7517E+02   1.0750E+03
     6    3.9000E+02   4.1703E+00   3.4568E-02   1.1894E+02   1.1987E+03
     7    4.5500E+02   1.7090E+01   1.4166E-01  -1.6447E+02   1.0952E+03
     8    5.2000E+02   9.1718E+00   7.6026E-02   1.2799E+02   1.5676E+03
     9    5.8500E+02   1.4420E+01   1.1953E-01  -1.6913E+02   1.4505E+03
    10    6.5000E+02   6.4482E+00   5.3450E-02  -4.4408E+01   1.7552E+03
    11    7.1500E+02   1.1779E+01   9.7638E-02  -1.6278E+02   1.8167E+03
    12    7.8000E+02   5.0970E-01   4.2249E-03  -5.8442E+01   2.1010E+03
    13    8.4500E+02   1.5255E+01   1.2645E-01  -1.7798E+02   2.1614E+03
    14    9.1000E+02   4.8723E+00   4.0387E-02   1.5979E+02   2.6792E+03
    15    9.7500E+02   1.4308E+01   1.1860E-01  -1.7280E+02   2.5265E+03
    16    1.0400E+03   8.2614E+00   6.8480E-02  -1.4210E+01   2.8651E+03
    17    1.1050E+03   1.7589E+01   1.4579E-01  -1.7227E+02   2.8870E+03
    18    1.1700E+03   3.9929E+00   3.3097E-02  -6.6187E+00   3.2326E+03
    19    1.2350E+03   1.2063E+01   9.9994E-02  -1.5767E+02   3.2615E+03
    20    1.3000E+03   4.8753E+00   4.0412E-02   3.1376E+00   3.6023E+03
    21    1.3650E+03   2.1308E+01   1.7663E-01  -1.5961E+02   3.6195E+03
    22    1.4300E+03   1.4163E+00   1.1740E-02  -1.6271E+02   3.7963E+03
    23    1.4950E+03   5.8055E+01   4.8122E-01  -1.5614E+02   3.9828E+03
    24    1.5600E+03   9.7593E-02   8.0896E-04  -5.0368E+01   4.2686E+03
    25    1.6250E+03   5.2868E+01   4.3823E-01   2.8809E+01   4.5277E+03
    26    1.6900E+03   1.5650E+00   1.2972E-02  -1.4644E+02   4.5324E+03
    27    1.7550E+03   1.6711E+01   1.3852E-01   3.5388E+01   4.8942E+03
    28    1.8200E+03   5.2273E+00   4.3330E-02   4.0969E+01   5.0797E+03
    29    1.8850E+03   1.1997E+01   9.9445E-02   4.4220E+01   5.2629E+03
    30    1.9500E+03   4.4282E+00   3.6706E-02   5.1141E+01   5.4498E+03


     TOTAL HARMONIC DISTORTION =   8.8227E+01 PERCENT


          JOB CONCLUDED

**** 11/15/21 19:03:35 ******* PSpice 17.4.0 (Nov 2018) ******* ID# 0 ********

 Proyecto_Laboratorio_Electronica_Potencia


 ****     JOB STATISTICS SUMMARY


******************************************************************************



  License check-out time            =       42.42
  Total job time (using Solver 1)   =        3.48
