
**** 11/16/21 13:34:02 ******* PSpice 17.4.0 (Nov 2018) ******* ID# 0 ********

 Proyecto_Laboratorio_Electronica_Potencia


 ****     CIRCUIT DESCRIPTION


******************************************************************************



 *Cliclo convertidor Trifásico - Monofásico
 *Estudiantes:
                *Jose Fabio Navarro Naranjo 2019049626
                *Emmanuel Naranjo Blanco   2019053605
                *Adrian Dittel Retana             2019007945
 
*Definicion de parametros para la simulacion del circuito

*Entradas
.param V_in={120};  *Tension RMS de entrada por fase
.param f_in={400} ; *Frecuencia de entrada (entre 120Hz y 400Hz)
.param f_out={100} ;*Frecuencia de salida (entre 30Hz y 100Hz))
.param alfa={131}; *Angulo de disparo
.param carga={82.3} ;*carga a alimentar (resistiva)

*Derivaciones de las entradas
.param V_pico={V_in*sqrt(2)}; *Tension pico en la entrada
.param delay_p={alfa/(360*f_in)}; *Delay para la fase P
.param delay_n={(periodo_in/2)+delay_p}; *Delay para la fase N
.param pw={1/(3*f_in)}; *Tiempo en alto de los SCR (pulse width) 
.param periodo_in={1/f_in}; *Periodo de la seal de entrada
.param periodo_out={1/f_out}; *Periodo de la seal de salida
.param pw_pn={0.5*periodo_out}; *Tiempo en alto de las seales p y n

*Componentes del circuito

*Definicion de las entradas de fase 
Van 1 0 Sin(0 {V_pico} {f_in} 0 0 -30); *fase A
Vbn 2 0 Sin(0 {V_pico} {f_in} 0 0 -150); *fase B
Vcn 3 0 Sin(0 {V_pico} {f_in} 0 0 -270); *fase C

*Para la implemetacion de los SCR se van a utilizar diodos en combinacion con switches que en conjunto simulan el comportamiento deseado

*P Converter (Switches y Diodos)

sw1p 1 4 18 0 smod
dio1p 4 5 dmod

sw3p 2 6 19 0 smod
dio3p 6 5 dmod

sw5p 3 7 20 0 smod
dio5p 7 5 dmod

sw2p 8 9 21 0 smod
dio2p 9 1 dmod

sw4p 8 10 22 0 smod
dio4p 10 2 dmod

sw6p 8 11 23 0 smod
dio6p 11 3 dmod

*N Converter (Switches y Diodos)

sw1n 5 12 24 0 smod
dio1n 12 1 dmod

sw3n 5 13 25 0 smod
dio3n 13 2 dmod

sw5n 5 14 26 0  smod
dio5n 14 3 dmod

sw2n 1 15 27 0 smod
dio2n 15 8 dmod

sw4n 2 16 28 0 smod
dio4n 16 8 dmod

sw6n 3 17 29 0 smod
dio6n 17 8 dmod

*Carga
r_load 5 8 {carga} 

*Control para los switches

*Control P

v1p 18 30 pulse(-5 5 {delay_p} 1ns 1ns {pw} {periodo_in})
v3p 19 30 pulse(-5 5 {delay_p + periodo_in/3} 1ns 1ns {pw} {periodo_in})
v5p 20 30 pulse(-5 5 {delay_p + 2*periodo_in/3} 1ns 1ns {pw} {periodo_in})
v2p 21 30 pulse(-5 5 {delay_p + periodo_in/2} 1ns 1ns {pw} {periodo_in})
v4p 22 30 pulse(-5 5 {delay_p + 5*periodo_in/6} 1ns 1ns {pw} {periodo_in})
v6p 23 30 pulse(-5 5 {delay_p + periodo_in/6} 1ns 1ns {pw} {periodo_in})

vc_p 30 0 pulse(5 -5 0 1ns 1ns {pw_pn} {periodo_out}); *fuente para controlar la fase P

*Control N

v1n 24 31 pulse(-5 5 {delay_n} 1ns 1ns {pw} {periodo_in})
v3n 25 31 pulse(-5 5 {delay_n + periodo_in/3} 1ns 1ns {pw} {periodo_in})
v5n 26 31 pulse(-5 5 {delay_n + 2*periodo_in/3} 1ns 1ns {pw} {periodo_in})
v2n 27 31 pulse(-5 5 {delay_n + periodo_in/2} 1ns 1ns {pw} {periodo_in})
v4n 28 31 pulse(-5 5 {delay_n + 5*periodo_in/6} 1ns 1ns {pw} {periodo_in})
v6n 29 31 pulse(-5 5 {delay_n + periodo_in/6} 1ns 1ns {pw} {periodo_in})

vc_n 31 0 pulse(5 -5 {periodo_out/2} 1ns 1ns {pw_pn} {periodo_out}); *fuente para controlar la fase N

.model smod VSWITCH(Ron=0.001m)
.model dmod d
.tran .1ms 400ms 0ms .1ms uic
.FOUR {f_in} 30 I(Van)
.probe
.end

**** 11/16/21 13:34:02 ******* PSpice 17.4.0 (Nov 2018) ******* ID# 0 ********

 Proyecto_Laboratorio_Electronica_Potencia


 ****     Diode MODEL PARAMETERS


******************************************************************************




               dmod            
          IS   10.000000E-15 


**** 11/16/21 13:34:02 ******* PSpice 17.4.0 (Nov 2018) ******* ID# 0 ********

 Proyecto_Laboratorio_Electronica_Potencia


 ****     Voltage Controlled Switch MODEL PARAMETERS


******************************************************************************




               smod            
         RON    1.000000E-06 
        ROFF    1.000000E+06 
         VON    1            
        VOFF    0            


**** 11/16/21 13:34:02 ******* PSpice 17.4.0 (Nov 2018) ******* ID# 0 ********

 Proyecto_Laboratorio_Electronica_Potencia


 ****     FOURIER ANALYSIS                 TEMPERATURE =   27.000 DEG C


******************************************************************************



FOURIER COMPONENTS OF TRANSIENT RESPONSE I(Van)



 DC COMPONENT =   1.4531E-06

 HARMONIC   FREQUENCY     FOURIER     NORMALIZED     PHASE     NORMALIZED
    NO         (HZ)      COMPONENT     COMPONENT     (DEG)     PHASE (DEG)

     1    4.0000E+02   1.2511E+00   1.0000E+00   9.2544E+01   0.0000E+00
     2    8.0000E+02   1.4229E-06   1.1373E-06  -5.7414E+01  -2.4250E+02
     3    1.2000E+03   3.5834E-02   2.8642E-02  -1.2542E+02  -4.0306E+02
     4    1.6000E+03   5.0718E-06   4.0538E-06  -5.8299E+01  -4.2848E+02
     5    2.0000E+03   7.8687E-01   6.2894E-01  -7.5573E+01  -5.3829E+02
     6    2.4000E+03   2.9341E-06   2.3452E-06   9.9649E+00  -5.4530E+02
     7    2.8000E+03   4.4438E-01   3.5519E-01  -5.6187E+01  -7.0400E+02
     8    3.2000E+03   2.9374E-06   2.3479E-06   1.0005E+02  -6.4030E+02
     9    3.6000E+03   3.5305E-02   2.8219E-02   1.6298E+02  -6.6992E+02
    10    4.0000E+03   2.8533E-06   2.2806E-06  -1.4605E+02  -1.0715E+03
    11    4.4000E+03   2.8506E-01   2.2784E-01  -1.5119E+02  -1.1692E+03
    12    4.8000E+03   2.9746E-06   2.3775E-06  -6.9466E+01  -1.1800E+03
    13    5.2000E+03   2.3508E-01   1.8790E-01  -1.2120E+02  -1.3243E+03
    14    5.6000E+03   3.1791E-06   2.5410E-06   3.0588E+01  -1.2650E+03
    15    6.0000E+03   3.5491E-02   2.8368E-02   8.9638E+01  -1.2985E+03
    16    6.4000E+03   2.7291E-06   2.1814E-06   1.1875E+02  -1.3620E+03
    17    6.8000E+03   1.8151E-01   1.4508E-01   1.2895E+02  -1.4443E+03
    18    7.2000E+03   2.9774E-06   2.3798E-06  -1.4784E+02  -1.8136E+03
    19    7.6000E+03   1.4267E-01   1.1403E-01   1.6943E+02  -1.5889E+03
    20    8.0000E+03   2.7827E-06   2.2242E-06  -4.5420E+01  -1.8963E+03
    21    8.4000E+03   3.7291E-02   2.9807E-02   1.6256E+01  -1.9272E+03
    22    8.8000E+03   3.1264E-06   2.4989E-06   3.8370E+01  -1.9976E+03
    23    9.2000E+03   1.5118E-01   1.2083E-01   5.3231E+01  -2.0753E+03
    24    9.6000E+03   2.9166E-06   2.3312E-06   1.3401E+02  -2.0871E+03
    25    1.0000E+04   1.0065E-01   8.0445E-02   9.3349E+01  -2.2203E+03
    26    1.0400E+04   2.6736E-06   2.1370E-06  -1.3044E+02  -2.5366E+03
    27    1.0800E+04   3.9850E-02   3.1852E-02  -5.5093E+01  -2.5538E+03
    28    1.1200E+04   3.1944E-06   2.5532E-06  -3.7065E+01  -2.6283E+03
    29    1.1600E+04   1.3324E-01   1.0650E-01  -1.8529E+01  -2.7023E+03
    30    1.2000E+04   2.8859E-06   2.3067E-06   5.3866E+01  -2.7225E+03


     TOTAL HARMONIC DISTORTION =   8.2445E+01 PERCENT


          JOB CONCLUDED

**** 11/16/21 13:34:02 ******* PSpice 17.4.0 (Nov 2018) ******* ID# 0 ********

 Proyecto_Laboratorio_Electronica_Potencia


 ****     JOB STATISTICS SUMMARY


******************************************************************************



  License check-out time            =       69.39
  Total job time (using Solver 1)   =       14.36
