
**** 11/16/21 13:18:25 ******* PSpice 17.4.0 (Nov 2018) ******* ID# 0 ********

 Proyecto_Laboratorio_Electronica_Potencia


 ****     CIRCUIT DESCRIPTION


******************************************************************************



 *Cliclo convertidor Trifásico - Monofásico
 *Estudiantes:
                *Jose Fabio Navarro Naranjo 2019049626
                *Emmanuel Naranjo Blanco   2019053605
                *Adrian Dittel Retana             2019007945
 
*Definicion de parametros para la simulacion del circuito

*Entradas
.param V_in={120};  *Tension RMS de entrada por fase
.param f_in={120} ; *Frecuencia de entrada (entre 120Hz y 400Hz)
.param f_out={30} ;*Frecuencia de salida (entre 30Hz y 100Hz))
.param alfa={131}; *Angulo de disparo
.param carga={82.3} ;*carga a alimentar (resistiva)

*Derivaciones de las entradas
.param V_pico={V_in*sqrt(2)}; *Tension pico en la entrada
.param delay_p={alfa/(360*f_in)}; *Delay para la fase P
.param delay_n={(periodo_in/2)+delay_p}; *Delay para la fase N
.param pw={1/(3*f_in)}; *Tiempo en alto de los SCR (pulse width) 
.param periodo_in={1/f_in}; *Periodo de la seal de entrada
.param periodo_out={1/f_out}; *Periodo de la seal de salida
.param pw_pn={0.5*periodo_out}; *Tiempo en alto de las seales p y n

*Componentes del circuito

*Definicion de las entradas de fase 
Van 1 0 Sin(0 {V_pico} {f_in} 0 0 -30); *fase A
Vbn 2 0 Sin(0 {V_pico} {f_in} 0 0 -150); *fase B
Vcn 3 0 Sin(0 {V_pico} {f_in} 0 0 -270); *fase C

*Para la implemetacion de los SCR se van a utilizar diodos en combinacion con switches que en conjunto simulan el comportamiento deseado

*P Converter (Switches y Diodos)

sw1p 1 4 18 0 smod
dio1p 4 5 dmod

sw3p 2 6 19 0 smod
dio3p 6 5 dmod

sw5p 3 7 20 0 smod
dio5p 7 5 dmod

sw2p 8 9 21 0 smod
dio2p 9 1 dmod

sw4p 8 10 22 0 smod
dio4p 10 2 dmod

sw6p 8 11 23 0 smod
dio6p 11 3 dmod

*N Converter (Switches y Diodos)

sw1n 5 12 24 0 smod
dio1n 12 1 dmod

sw3n 5 13 25 0 smod
dio3n 13 2 dmod

sw5n 5 14 26 0  smod
dio5n 14 3 dmod

sw2n 1 15 27 0 smod
dio2n 15 8 dmod

sw4n 2 16 28 0 smod
dio4n 16 8 dmod

sw6n 3 17 29 0 smod
dio6n 17 8 dmod

*Carga
r_load 5 8 {carga} 

*Control para los switches

*Control P

v1p 18 30 pulse(-5 5 {delay_p} 1ns 1ns {pw} {periodo_in})
v3p 19 30 pulse(-5 5 {delay_p + periodo_in/3} 1ns 1ns {pw} {periodo_in})
v5p 20 30 pulse(-5 5 {delay_p + 2*periodo_in/3} 1ns 1ns {pw} {periodo_in})
v2p 21 30 pulse(-5 5 {delay_p + periodo_in/2} 1ns 1ns {pw} {periodo_in})
v4p 22 30 pulse(-5 5 {delay_p + 5*periodo_in/6} 1ns 1ns {pw} {periodo_in})
v6p 23 30 pulse(-5 5 {delay_p + periodo_in/6} 1ns 1ns {pw} {periodo_in})

vc_p 30 0 pulse(5 -5 0 1ns 1ns {pw_pn} {periodo_out}); *fuente para controlar la fase P

*Control N

v1n 24 31 pulse(-5 5 {delay_n} 1ns 1ns {pw} {periodo_in})
v3n 25 31 pulse(-5 5 {delay_n + periodo_in/3} 1ns 1ns {pw} {periodo_in})
v5n 26 31 pulse(-5 5 {delay_n + 2*periodo_in/3} 1ns 1ns {pw} {periodo_in})
v2n 27 31 pulse(-5 5 {delay_n + periodo_in/2} 1ns 1ns {pw} {periodo_in})
v4n 28 31 pulse(-5 5 {delay_n + 5*periodo_in/6} 1ns 1ns {pw} {periodo_in})
v6n 29 31 pulse(-5 5 {delay_n + periodo_in/6} 1ns 1ns {pw} {periodo_in})

vc_n 31 0 pulse(5 -5 {periodo_out/2} 1ns 1ns {pw_pn} {periodo_out}); *fuente para controlar la fase N

.model smod VSWITCH(Ron=0.001m)
.model dmod d
.tran .1ms 400ms 0ms .1ms uic
.FOUR {f_in} 30 I(Van)
.probe
.end

**** 11/16/21 13:18:25 ******* PSpice 17.4.0 (Nov 2018) ******* ID# 0 ********

 Proyecto_Laboratorio_Electronica_Potencia


 ****     Diode MODEL PARAMETERS


******************************************************************************




               dmod            
          IS   10.000000E-15 


**** 11/16/21 13:18:25 ******* PSpice 17.4.0 (Nov 2018) ******* ID# 0 ********

 Proyecto_Laboratorio_Electronica_Potencia


 ****     Voltage Controlled Switch MODEL PARAMETERS


******************************************************************************




               smod            
         RON    1.000000E-06 
        ROFF    1.000000E+06 
         VON    1            
        VOFF    0            


**** 11/16/21 13:18:25 ******* PSpice 17.4.0 (Nov 2018) ******* ID# 0 ********

 Proyecto_Laboratorio_Electronica_Potencia


 ****     FOURIER ANALYSIS                 TEMPERATURE =   27.000 DEG C


******************************************************************************



FOURIER COMPONENTS OF TRANSIENT RESPONSE I(Van)



 DC COMPONENT =  -1.5857E-06

 HARMONIC   FREQUENCY     FOURIER     NORMALIZED     PHASE     NORMALIZED
    NO         (HZ)      COMPONENT     COMPONENT     (DEG)     PHASE (DEG)

     1    1.2000E+02   1.2542E+00   1.0000E+00   9.2519E+01   0.0000E+00
     2    2.4000E+02   2.7289E-06   2.1758E-06  -6.8032E+01  -2.5307E+02
     3    3.6000E+02   3.5796E-02   2.8540E-02  -1.2535E+02  -4.0291E+02
     4    4.8000E+02   2.2430E-06   1.7883E-06  -7.0775E+01  -4.4085E+02
     5    6.0000E+02   7.8844E-01   6.2862E-01  -7.5696E+01  -5.3829E+02
     6    7.2000E+02   2.4446E-06   1.9491E-06  -1.2605E+02  -6.8117E+02
     7    8.4000E+02   4.4472E-01   3.5457E-01  -5.6405E+01  -7.0404E+02
     8    9.6000E+02   2.1003E-06   1.6746E-06  -1.7565E+02  -9.1581E+02
     9    1.0800E+03   3.5299E-02   2.8144E-02   1.6310E+02  -6.6957E+02
    10    1.2000E+03   1.4342E-06   1.1435E-06   6.3468E+01  -8.6173E+02
    11    1.3200E+03   2.8442E-01   2.2677E-01  -1.5117E+02  -1.1689E+03
    12    1.4400E+03   2.4755E-06   1.9737E-06   1.3271E+01  -1.0970E+03
    13    1.5600E+03   2.3470E-01   1.8713E-01  -1.2114E+02  -1.3239E+03
    14    1.6800E+03   1.7967E-06   1.4325E-06   2.0853E+01  -1.2744E+03
    15    1.8000E+03   3.5651E-02   2.8424E-02   8.9575E+01  -1.2982E+03
    16    1.9200E+03   2.6578E-06   2.1191E-06   3.3718E+01  -1.4466E+03
    17    2.0400E+03   1.8200E-01   1.4511E-01   1.2896E+02  -1.4439E+03
    18    2.1600E+03   3.1387E-06   2.5025E-06  -2.6071E+00  -1.6680E+03
    19    2.2800E+03   1.4310E-01   1.1410E-01   1.6926E+02  -1.5886E+03
    20    2.4000E+03   2.4852E-06   1.9815E-06  -5.4544E+01  -1.9049E+03
    21    2.5200E+03   3.7194E-02   2.9654E-02   1.6197E+01  -1.9267E+03
    22    2.6400E+03   1.2887E-06   1.0275E-06  -8.1805E+01  -2.1172E+03
    23    2.7600E+03   1.5033E-01   1.1985E-01   5.3083E+01  -2.0749E+03
    24    2.8800E+03   1.3476E-06   1.0744E-06  -3.7599E+01  -2.2581E+03
    25    3.0000E+03   9.9759E-02   7.9538E-02   9.3619E+01  -2.2194E+03
    26    3.1200E+03   1.4946E-06   1.1917E-06  -7.6004E+01  -2.4815E+03
    27    3.2400E+03   3.9968E-02   3.1867E-02  -5.5181E+01  -2.5532E+03
    28    3.3600E+03   1.2042E-06   9.6012E-07  -1.7515E+02  -2.7657E+03
    29    3.4800E+03   1.3373E-01   1.0662E-01  -1.8264E+01  -2.7013E+03
    30    3.6000E+03   1.5540E-06   1.2390E-06   9.0278E+01  -2.6853E+03


     TOTAL HARMONIC DISTORTION =   8.2327E+01 PERCENT


          JOB CONCLUDED

**** 11/16/21 13:18:25 ******* PSpice 17.4.0 (Nov 2018) ******* ID# 0 ********

 Proyecto_Laboratorio_Electronica_Potencia


 ****     JOB STATISTICS SUMMARY


******************************************************************************



  License check-out time            =       11.09
  Total job time (using Solver 1)   =        4.78
