
**** 11/16/21 13:20:41 ******* PSpice 17.4.0 (Nov 2018) ******* ID# 0 ********

 Proyecto_Laboratorio_Electronica_Potencia


 ****     CIRCUIT DESCRIPTION


******************************************************************************



 *Cliclo convertidor Trifásico - Monofásico
 *Estudiantes:
                *Jose Fabio Navarro Naranjo 2019049626
                *Emmanuel Naranjo Blanco   2019053605
                *Adrian Dittel Retana             2019007945
 
*Definicion de parametros para la simulacion del circuito

*Entradas
.param V_in={120};  *Tension RMS de entrada por fase
.param f_in={120} ; *Frecuencia de entrada (entre 120Hz y 400Hz)
.param f_out={30} ;*Frecuencia de salida (entre 30Hz y 100Hz))
.param alfa={131}; *Angulo de disparo
.param carga={48} ;*carga a alimentar (resistiva)

*Derivaciones de las entradas
.param V_pico={V_in*sqrt(2)}; *Tension pico en la entrada
.param delay_p={alfa/(360*f_in)}; *Delay para la fase P
.param delay_n={(periodo_in/2)+delay_p}; *Delay para la fase N
.param pw={1/(3*f_in)}; *Tiempo en alto de los SCR (pulse width) 
.param periodo_in={1/f_in}; *Periodo de la seal de entrada
.param periodo_out={1/f_out}; *Periodo de la seal de salida
.param pw_pn={0.5*periodo_out}; *Tiempo en alto de las seales p y n

*Componentes del circuito

*Definicion de las entradas de fase 
Van 1 0 Sin(0 {V_pico} {f_in} 0 0 -30); *fase A
Vbn 2 0 Sin(0 {V_pico} {f_in} 0 0 -150); *fase B
Vcn 3 0 Sin(0 {V_pico} {f_in} 0 0 -270); *fase C

*Para la implemetacion de los SCR se van a utilizar diodos en combinacion con switches que en conjunto simulan el comportamiento deseado

*P Converter (Switches y Diodos)

sw1p 1 4 18 0 smod
dio1p 4 5 dmod

sw3p 2 6 19 0 smod
dio3p 6 5 dmod

sw5p 3 7 20 0 smod
dio5p 7 5 dmod

sw2p 8 9 21 0 smod
dio2p 9 1 dmod

sw4p 8 10 22 0 smod
dio4p 10 2 dmod

sw6p 8 11 23 0 smod
dio6p 11 3 dmod

*N Converter (Switches y Diodos)

sw1n 5 12 24 0 smod
dio1n 12 1 dmod

sw3n 5 13 25 0 smod
dio3n 13 2 dmod

sw5n 5 14 26 0  smod
dio5n 14 3 dmod

sw2n 1 15 27 0 smod
dio2n 15 8 dmod

sw4n 2 16 28 0 smod
dio4n 16 8 dmod

sw6n 3 17 29 0 smod
dio6n 17 8 dmod

*Carga
r_load 5 8 {carga} 

*Control para los switches

*Control P

v1p 18 30 pulse(-5 5 {delay_p} 1ns 1ns {pw} {periodo_in})
v3p 19 30 pulse(-5 5 {delay_p + periodo_in/3} 1ns 1ns {pw} {periodo_in})
v5p 20 30 pulse(-5 5 {delay_p + 2*periodo_in/3} 1ns 1ns {pw} {periodo_in})
v2p 21 30 pulse(-5 5 {delay_p + periodo_in/2} 1ns 1ns {pw} {periodo_in})
v4p 22 30 pulse(-5 5 {delay_p + 5*periodo_in/6} 1ns 1ns {pw} {periodo_in})
v6p 23 30 pulse(-5 5 {delay_p + periodo_in/6} 1ns 1ns {pw} {periodo_in})

vc_p 30 0 pulse(5 -5 0 1ns 1ns {pw_pn} {periodo_out}); *fuente para controlar la fase P

*Control N

v1n 24 31 pulse(-5 5 {delay_n} 1ns 1ns {pw} {periodo_in})
v3n 25 31 pulse(-5 5 {delay_n + periodo_in/3} 1ns 1ns {pw} {periodo_in})
v5n 26 31 pulse(-5 5 {delay_n + 2*periodo_in/3} 1ns 1ns {pw} {periodo_in})
v2n 27 31 pulse(-5 5 {delay_n + periodo_in/2} 1ns 1ns {pw} {periodo_in})
v4n 28 31 pulse(-5 5 {delay_n + 5*periodo_in/6} 1ns 1ns {pw} {periodo_in})
v6n 29 31 pulse(-5 5 {delay_n + periodo_in/6} 1ns 1ns {pw} {periodo_in})

vc_n 31 0 pulse(5 -5 {periodo_out/2} 1ns 1ns {pw_pn} {periodo_out}); *fuente para controlar la fase N

.model smod VSWITCH(Ron=0.001m)
.model dmod d
.tran .1ms 400ms 0ms .1ms uic
.FOUR {f_in} 30 I(Van)
.probe
.end

**** 11/16/21 13:20:41 ******* PSpice 17.4.0 (Nov 2018) ******* ID# 0 ********

 Proyecto_Laboratorio_Electronica_Potencia


 ****     Diode MODEL PARAMETERS


******************************************************************************




               dmod            
          IS   10.000000E-15 


**** 11/16/21 13:20:41 ******* PSpice 17.4.0 (Nov 2018) ******* ID# 0 ********

 Proyecto_Laboratorio_Electronica_Potencia


 ****     Voltage Controlled Switch MODEL PARAMETERS


******************************************************************************




               smod            
         RON    1.000000E-06 
        ROFF    1.000000E+06 
         VON    1            
        VOFF    0            


**** 11/16/21 13:20:41 ******* PSpice 17.4.0 (Nov 2018) ******* ID# 0 ********

 Proyecto_Laboratorio_Electronica_Potencia


 ****     FOURIER ANALYSIS                 TEMPERATURE =   27.000 DEG C


******************************************************************************



FOURIER COMPONENTS OF TRANSIENT RESPONSE I(Van)



 DC COMPONENT =  -2.7082E-06

 HARMONIC   FREQUENCY     FOURIER     NORMALIZED     PHASE     NORMALIZED
    NO         (HZ)      COMPONENT     COMPONENT     (DEG)     PHASE (DEG)

     1    1.2000E+02   2.1497E+00   1.0000E+00   9.2514E+01   0.0000E+00
     2    2.4000E+02   4.6694E-06   2.1721E-06  -6.7958E+01  -2.5299E+02
     3    3.6000E+02   6.1365E-02   2.8546E-02  -1.2535E+02  -4.0290E+02
     4    4.8000E+02   3.8474E-06   1.7897E-06  -7.0805E+01  -4.4086E+02
     5    6.0000E+02   1.3517E+00   6.2877E-01  -7.5689E+01  -5.3826E+02
     6    7.2000E+02   4.1913E-06   1.9497E-06  -1.2607E+02  -6.8115E+02
     7    8.4000E+02   7.6246E-01   3.5468E-01  -5.6404E+01  -7.0400E+02
     8    9.6000E+02   3.5962E-06   1.6729E-06  -1.7581E+02  -9.1592E+02
     9    1.0800E+03   6.0519E-02   2.8152E-02   1.6310E+02  -6.6953E+02
    10    1.2000E+03   2.4724E-06   1.1501E-06   6.3586E+01  -8.6155E+02
    11    1.3200E+03   4.8754E-01   2.2680E-01  -1.5117E+02  -1.1688E+03
    12    1.4400E+03   4.2444E-06   1.9744E-06   1.3464E+01  -1.0967E+03
    13    1.5600E+03   4.0235E-01   1.8717E-01  -1.2113E+02  -1.3238E+03
    14    1.6800E+03   3.0836E-06   1.4344E-06   2.0958E+01  -1.2742E+03
    15    1.8000E+03   6.1125E-02   2.8434E-02   8.9577E+01  -1.2981E+03
    16    1.9200E+03   4.5584E-06   2.1205E-06   3.3674E+01  -1.4465E+03
    17    2.0400E+03   3.1200E-01   1.4514E-01   1.2896E+02  -1.4438E+03
    18    2.1600E+03   5.3804E-06   2.5029E-06  -2.5501E+00  -1.6678E+03
    19    2.2800E+03   2.4530E-01   1.1411E-01   1.6926E+02  -1.5885E+03
    20    2.4000E+03   4.2459E-06   1.9751E-06  -5.4410E+01  -1.9047E+03
    21    2.5200E+03   6.3764E-02   2.9662E-02   1.6203E+01  -1.9266E+03
    22    2.6400E+03   2.1937E-06   1.0205E-06  -8.1712E+01  -2.1170E+03
    23    2.7600E+03   2.5773E-01   1.1989E-01   5.3084E+01  -2.0747E+03
    24    2.8800E+03   2.3066E-06   1.0730E-06  -3.7479E+01  -2.2578E+03
    25    3.0000E+03   1.7102E-01   7.9555E-02   9.3612E+01  -2.2192E+03
    26    3.1200E+03   2.5598E-06   1.1908E-06  -7.5999E+01  -2.4814E+03
    27    3.2400E+03   6.8516E-02   3.1873E-02  -5.5180E+01  -2.5531E+03
    28    3.3600E+03   2.0628E-06   9.5960E-07  -1.7537E+02  -2.7658E+03
    29    3.4800E+03   2.2926E-01   1.0665E-01  -1.8258E+01  -2.7012E+03
    30    3.6000E+03   2.6777E-06   1.2456E-06   9.0254E+01  -2.6852E+03


     TOTAL HARMONIC DISTORTION =   8.2346E+01 PERCENT


          JOB CONCLUDED

**** 11/16/21 13:20:41 ******* PSpice 17.4.0 (Nov 2018) ******* ID# 0 ********

 Proyecto_Laboratorio_Electronica_Potencia


 ****     JOB STATISTICS SUMMARY


******************************************************************************



  License check-out time            =       15.91
  Total job time (using Solver 1)   =        4.89
