
**** 11/16/21 13:27:23 ******* PSpice 17.4.0 (Nov 2018) ******* ID# 0 ********

 Proyecto_Laboratorio_Electronica_Potencia


 ****     CIRCUIT DESCRIPTION


******************************************************************************



 *Cliclo convertidor Trifásico - Monofásico
 *Estudiantes:
                *Jose Fabio Navarro Naranjo 2019049626
                *Emmanuel Naranjo Blanco   2019053605
                *Adrian Dittel Retana             2019007945
 
*Definicion de parametros para la simulacion del circuito

*Entradas
.param V_in={120};  *Tension RMS de entrada por fase
.param f_in={260} ; *Frecuencia de entrada (entre 120Hz y 400Hz)
.param f_out={65} ;*Frecuencia de salida (entre 30Hz y 100Hz))
.param alfa={131}; *Angulo de disparo
.param carga={48} ;*carga a alimentar (resistiva)

*Derivaciones de las entradas
.param V_pico={V_in*sqrt(2)}; *Tension pico en la entrada
.param delay_p={alfa/(360*f_in)}; *Delay para la fase P
.param delay_n={(periodo_in/2)+delay_p}; *Delay para la fase N
.param pw={1/(3*f_in)}; *Tiempo en alto de los SCR (pulse width) 
.param periodo_in={1/f_in}; *Periodo de la seal de entrada
.param periodo_out={1/f_out}; *Periodo de la seal de salida
.param pw_pn={0.5*periodo_out}; *Tiempo en alto de las seales p y n

*Componentes del circuito

*Definicion de las entradas de fase 
Van 1 0 Sin(0 {V_pico} {f_in} 0 0 -30); *fase A
Vbn 2 0 Sin(0 {V_pico} {f_in} 0 0 -150); *fase B
Vcn 3 0 Sin(0 {V_pico} {f_in} 0 0 -270); *fase C

*Para la implemetacion de los SCR se van a utilizar diodos en combinacion con switches que en conjunto simulan el comportamiento deseado

*P Converter (Switches y Diodos)

sw1p 1 4 18 0 smod
dio1p 4 5 dmod

sw3p 2 6 19 0 smod
dio3p 6 5 dmod

sw5p 3 7 20 0 smod
dio5p 7 5 dmod

sw2p 8 9 21 0 smod
dio2p 9 1 dmod

sw4p 8 10 22 0 smod
dio4p 10 2 dmod

sw6p 8 11 23 0 smod
dio6p 11 3 dmod

*N Converter (Switches y Diodos)

sw1n 5 12 24 0 smod
dio1n 12 1 dmod

sw3n 5 13 25 0 smod
dio3n 13 2 dmod

sw5n 5 14 26 0  smod
dio5n 14 3 dmod

sw2n 1 15 27 0 smod
dio2n 15 8 dmod

sw4n 2 16 28 0 smod
dio4n 16 8 dmod

sw6n 3 17 29 0 smod
dio6n 17 8 dmod

*Carga
r_load 5 8 {carga} 

*Control para los switches

*Control P

v1p 18 30 pulse(-5 5 {delay_p} 1ns 1ns {pw} {periodo_in})
v3p 19 30 pulse(-5 5 {delay_p + periodo_in/3} 1ns 1ns {pw} {periodo_in})
v5p 20 30 pulse(-5 5 {delay_p + 2*periodo_in/3} 1ns 1ns {pw} {periodo_in})
v2p 21 30 pulse(-5 5 {delay_p + periodo_in/2} 1ns 1ns {pw} {periodo_in})
v4p 22 30 pulse(-5 5 {delay_p + 5*periodo_in/6} 1ns 1ns {pw} {periodo_in})
v6p 23 30 pulse(-5 5 {delay_p + periodo_in/6} 1ns 1ns {pw} {periodo_in})

vc_p 30 0 pulse(5 -5 0 1ns 1ns {pw_pn} {periodo_out}); *fuente para controlar la fase P

*Control N

v1n 24 31 pulse(-5 5 {delay_n} 1ns 1ns {pw} {periodo_in})
v3n 25 31 pulse(-5 5 {delay_n + periodo_in/3} 1ns 1ns {pw} {periodo_in})
v5n 26 31 pulse(-5 5 {delay_n + 2*periodo_in/3} 1ns 1ns {pw} {periodo_in})
v2n 27 31 pulse(-5 5 {delay_n + periodo_in/2} 1ns 1ns {pw} {periodo_in})
v4n 28 31 pulse(-5 5 {delay_n + 5*periodo_in/6} 1ns 1ns {pw} {periodo_in})
v6n 29 31 pulse(-5 5 {delay_n + periodo_in/6} 1ns 1ns {pw} {periodo_in})

vc_n 31 0 pulse(5 -5 {periodo_out/2} 1ns 1ns {pw_pn} {periodo_out}); *fuente para controlar la fase N

.model smod VSWITCH(Ron=0.001m)
.model dmod d
.tran .1ms 400ms 0ms .1ms uic
.FOUR {f_in} 30 I(Van)
.probe
.end

**** 11/16/21 13:27:23 ******* PSpice 17.4.0 (Nov 2018) ******* ID# 0 ********

 Proyecto_Laboratorio_Electronica_Potencia


 ****     Diode MODEL PARAMETERS


******************************************************************************




               dmod            
          IS   10.000000E-15 


**** 11/16/21 13:27:23 ******* PSpice 17.4.0 (Nov 2018) ******* ID# 0 ********

 Proyecto_Laboratorio_Electronica_Potencia


 ****     Voltage Controlled Switch MODEL PARAMETERS


******************************************************************************




               smod            
         RON    1.000000E-06 
        ROFF    1.000000E+06 
         VON    1            
        VOFF    0            


**** 11/16/21 13:27:23 ******* PSpice 17.4.0 (Nov 2018) ******* ID# 0 ********

 Proyecto_Laboratorio_Electronica_Potencia


 ****     FOURIER ANALYSIS                 TEMPERATURE =   27.000 DEG C


******************************************************************************



FOURIER COMPONENTS OF TRANSIENT RESPONSE I(Van)



 DC COMPONENT =  -4.5642E-02

 HARMONIC   FREQUENCY     FOURIER     NORMALIZED     PHASE     NORMALIZED
    NO         (HZ)      COMPONENT     COMPONENT     (DEG)     PHASE (DEG)

     1    2.6000E+02   2.2133E+00   1.0000E+00   9.2601E+01   0.0000E+00
     2    5.2000E+02   4.5105E-02   2.0379E-02  -5.1900E+01  -2.3710E+02
     3    7.8000E+02   3.0742E-02   1.3890E-02  -1.2463E+02  -4.0244E+02
     4    1.0400E+03   4.6375E-02   2.0953E-02   1.6397E+02  -2.0643E+02
     5    1.3000E+03   1.3483E+00   6.0917E-01  -7.2849E+01  -5.3585E+02
     6    1.5600E+03   9.0618E-02   4.0942E-02  -1.5794E+02  -7.1355E+02
     7    1.8200E+03   7.7082E-01   3.4827E-01  -5.1710E+01  -6.9992E+02
     8    2.0800E+03   4.2520E-02   1.9211E-02  -1.2051E+02  -8.6132E+02
     9    2.3400E+03   2.9432E-02   1.3298E-02   1.6988E+02  -6.6352E+02
    10    2.6000E+03   4.9319E-02   2.2283E-02   9.7836E+01  -8.2817E+02
    11    2.8600E+03   4.8038E-01   2.1704E-01  -1.4299E+02  -1.1616E+03
    12    3.1200E+03   9.1633E-02   4.1401E-02   1.3543E+02  -9.7578E+02
    13    3.3800E+03   4.1620E-01   1.8805E-01  -1.1303E+02  -1.3168E+03
    14    3.6400E+03   4.0372E-02   1.8240E-02   1.7494E+02  -1.1215E+03
    15    3.9000E+03   3.0454E-02   1.3759E-02   1.0145E+02  -1.2876E+03
    16    4.1600E+03   5.2594E-02   2.3762E-02   2.7274E+01  -1.4543E+03
    17    4.4200E+03   2.9411E-01   1.3288E-01   1.4250E+02  -1.4317E+03
    18    4.6800E+03   9.3403E-02   4.2200E-02   6.6629E+01  -1.6002E+03
    19    4.9400E+03   2.6225E-01   1.1849E-01  -1.7782E+02  -1.9372E+03
    20    5.2000E+03   3.8739E-02   1.7503E-02   1.0499E+02  -1.7470E+03
    21    5.4600E+03   3.0451E-02   1.3758E-02   3.0714E+01  -1.9139E+03
    22    5.7200E+03   5.6940E-02   2.5726E-02  -4.0402E+01  -2.0776E+03
    23    5.9800E+03   2.3009E-01   1.0396E-01   6.9718E+01  -2.0601E+03
    24    6.2400E+03   9.5018E-02   4.2930E-02  -1.6285E+00  -2.2241E+03
    25    6.5000E+03   1.8237E-01   8.2395E-02   1.1211E+02  -2.2029E+03
    26    6.7600E+03   3.6747E-02   1.6603E-02   3.5341E+01  -2.3723E+03
    27    7.0200E+03   3.1208E-02   1.4100E-02  -3.3838E+01  -2.5341E+03
    28    7.2800E+03   6.4163E-02   2.8989E-02  -1.0558E+02  -2.6984E+03
    29    7.5400E+03   1.9734E-01   8.9160E-02   2.2365E+00  -2.6832E+03
    30    7.8000E+03   1.0151E-01   4.5863E-02  -6.9111E+01  -2.8471E+03


     TOTAL HARMONIC DISTORTION =   8.0427E+01 PERCENT


          JOB CONCLUDED

**** 11/16/21 13:27:23 ******* PSpice 17.4.0 (Nov 2018) ******* ID# 0 ********

 Proyecto_Laboratorio_Electronica_Potencia


 ****     JOB STATISTICS SUMMARY


******************************************************************************



  License check-out time            =       42.55
  Total job time (using Solver 1)   =       10.50
