
**** 11/16/21 13:36:43 ******* PSpice 17.4.0 (Nov 2018) ******* ID# 0 ********

 Proyecto_Laboratorio_Electronica_Potencia


 ****     CIRCUIT DESCRIPTION


******************************************************************************



 *Cliclo convertidor Trifásico - Monofásico
 *Estudiantes:
                *Jose Fabio Navarro Naranjo 2019049626
                *Emmanuel Naranjo Blanco   2019053605
                *Adrian Dittel Retana             2019007945
 
*Definicion de parametros para la simulacion del circuito

*Entradas
.param V_in={120};  *Tension RMS de entrada por fase
.param f_in={400} ; *Frecuencia de entrada (entre 120Hz y 400Hz)
.param f_out={100} ;*Frecuencia de salida (entre 30Hz y 100Hz))
.param alfa={131}; *Angulo de disparo
.param carga={48} ;*carga a alimentar (resistiva)

*Derivaciones de las entradas
.param V_pico={V_in*sqrt(2)}; *Tension pico en la entrada
.param delay_p={alfa/(360*f_in)}; *Delay para la fase P
.param delay_n={(periodo_in/2)+delay_p}; *Delay para la fase N
.param pw={1/(3*f_in)}; *Tiempo en alto de los SCR (pulse width) 
.param periodo_in={1/f_in}; *Periodo de la seal de entrada
.param periodo_out={1/f_out}; *Periodo de la seal de salida
.param pw_pn={0.5*periodo_out}; *Tiempo en alto de las seales p y n

*Componentes del circuito

*Definicion de las entradas de fase 
Van 1 0 Sin(0 {V_pico} {f_in} 0 0 -30); *fase A
Vbn 2 0 Sin(0 {V_pico} {f_in} 0 0 -150); *fase B
Vcn 3 0 Sin(0 {V_pico} {f_in} 0 0 -270); *fase C

*Para la implemetacion de los SCR se van a utilizar diodos en combinacion con switches que en conjunto simulan el comportamiento deseado

*P Converter (Switches y Diodos)

sw1p 1 4 18 0 smod
dio1p 4 5 dmod

sw3p 2 6 19 0 smod
dio3p 6 5 dmod

sw5p 3 7 20 0 smod
dio5p 7 5 dmod

sw2p 8 9 21 0 smod
dio2p 9 1 dmod

sw4p 8 10 22 0 smod
dio4p 10 2 dmod

sw6p 8 11 23 0 smod
dio6p 11 3 dmod

*N Converter (Switches y Diodos)

sw1n 5 12 24 0 smod
dio1n 12 1 dmod

sw3n 5 13 25 0 smod
dio3n 13 2 dmod

sw5n 5 14 26 0  smod
dio5n 14 3 dmod

sw2n 1 15 27 0 smod
dio2n 15 8 dmod

sw4n 2 16 28 0 smod
dio4n 16 8 dmod

sw6n 3 17 29 0 smod
dio6n 17 8 dmod

*Carga
r_load 5 8 {carga} 

*Control para los switches

*Control P

v1p 18 30 pulse(-5 5 {delay_p} 1ns 1ns {pw} {periodo_in})
v3p 19 30 pulse(-5 5 {delay_p + periodo_in/3} 1ns 1ns {pw} {periodo_in})
v5p 20 30 pulse(-5 5 {delay_p + 2*periodo_in/3} 1ns 1ns {pw} {periodo_in})
v2p 21 30 pulse(-5 5 {delay_p + periodo_in/2} 1ns 1ns {pw} {periodo_in})
v4p 22 30 pulse(-5 5 {delay_p + 5*periodo_in/6} 1ns 1ns {pw} {periodo_in})
v6p 23 30 pulse(-5 5 {delay_p + periodo_in/6} 1ns 1ns {pw} {periodo_in})

vc_p 30 0 pulse(5 -5 0 1ns 1ns {pw_pn} {periodo_out}); *fuente para controlar la fase P

*Control N

v1n 24 31 pulse(-5 5 {delay_n} 1ns 1ns {pw} {periodo_in})
v3n 25 31 pulse(-5 5 {delay_n + periodo_in/3} 1ns 1ns {pw} {periodo_in})
v5n 26 31 pulse(-5 5 {delay_n + 2*periodo_in/3} 1ns 1ns {pw} {periodo_in})
v2n 27 31 pulse(-5 5 {delay_n + periodo_in/2} 1ns 1ns {pw} {periodo_in})
v4n 28 31 pulse(-5 5 {delay_n + 5*periodo_in/6} 1ns 1ns {pw} {periodo_in})
v6n 29 31 pulse(-5 5 {delay_n + periodo_in/6} 1ns 1ns {pw} {periodo_in})

vc_n 31 0 pulse(5 -5 {periodo_out/2} 1ns 1ns {pw_pn} {periodo_out}); *fuente para controlar la fase N

.model smod VSWITCH(Ron=0.001m)
.model dmod d
.tran .1ms 400ms 0ms .1ms uic
.FOUR {f_in} 30 I(Van)
.probe
.end

**** 11/16/21 13:36:43 ******* PSpice 17.4.0 (Nov 2018) ******* ID# 0 ********

 Proyecto_Laboratorio_Electronica_Potencia


 ****     Diode MODEL PARAMETERS


******************************************************************************




               dmod            
          IS   10.000000E-15 


**** 11/16/21 13:36:43 ******* PSpice 17.4.0 (Nov 2018) ******* ID# 0 ********

 Proyecto_Laboratorio_Electronica_Potencia


 ****     Voltage Controlled Switch MODEL PARAMETERS


******************************************************************************




               smod            
         RON    1.000000E-06 
        ROFF    1.000000E+06 
         VON    1            
        VOFF    0            


**** 11/16/21 13:36:43 ******* PSpice 17.4.0 (Nov 2018) ******* ID# 0 ********

 Proyecto_Laboratorio_Electronica_Potencia


 ****     FOURIER ANALYSIS                 TEMPERATURE =   27.000 DEG C


******************************************************************************



FOURIER COMPONENTS OF TRANSIENT RESPONSE I(Van)



 DC COMPONENT =   2.5337E-06

 HARMONIC   FREQUENCY     FOURIER     NORMALIZED     PHASE     NORMALIZED
    NO         (HZ)      COMPONENT     COMPONENT     (DEG)     PHASE (DEG)

     1    4.0000E+02   2.1443E+00   1.0000E+00   9.2539E+01   0.0000E+00
     2    8.0000E+02   2.3692E-06   1.1049E-06  -5.6557E+01  -2.4163E+02
     3    1.2000E+03   6.1430E-02   2.8648E-02  -1.2543E+02  -4.0304E+02
     4    1.6000E+03   8.6337E-06   4.0263E-06  -5.8109E+01  -4.2826E+02
     5    2.0000E+03   1.3490E+00   6.2908E-01  -7.5566E+01  -5.3826E+02
     6    2.4000E+03   5.0459E-06   2.3531E-06   1.0673E+01  -5.4456E+02
     7    2.8000E+03   7.6188E-01   3.5530E-01  -5.6187E+01  -7.0396E+02
     8    3.2000E+03   5.1037E-06   2.3801E-06   9.9751E+01  -6.4056E+02
     9    3.6000E+03   6.0530E-02   2.8228E-02   1.6297E+02  -6.6988E+02
    10    4.0000E+03   4.8354E-06   2.2550E-06  -1.4679E+02  -1.0722E+03
    11    4.4000E+03   4.8864E-01   2.2787E-01  -1.5119E+02  -1.1691E+03
    12    4.8000E+03   5.0174E-06   2.3398E-06  -6.9076E+01  -1.1795E+03
    13    5.2000E+03   4.0301E-01   1.8794E-01  -1.2120E+02  -1.3242E+03
    14    5.6000E+03   5.4896E-06   2.5600E-06   3.1380E+01  -1.2642E+03
    15    6.0000E+03   6.0851E-02   2.8378E-02   8.9640E+01  -1.2984E+03
    16    6.4000E+03   4.7509E-06   2.2156E-06   1.1838E+02  -1.3622E+03
    17    6.8000E+03   3.1117E-01   1.4511E-01   1.2894E+02  -1.4442E+03
    18    7.2000E+03   5.0683E-06   2.3636E-06  -1.4856E+02  -1.8143E+03
    19    7.6000E+03   2.4456E-01   1.1405E-01   1.6943E+02  -1.5888E+03
    20    8.0000E+03   4.7189E-06   2.2006E-06  -4.4768E+01  -1.8955E+03
    21    8.4000E+03   6.3931E-02   2.9814E-02   1.6261E+01  -1.9271E+03
    22    8.8000E+03   5.4101E-06   2.5230E-06   3.9018E+01  -1.9968E+03
    23    9.2000E+03   2.5918E-01   1.2087E-01   5.3233E+01  -2.0752E+03
    24    9.6000E+03   5.0583E-06   2.3589E-06   1.3339E+02  -2.0875E+03
    25    1.0000E+04   1.7254E-01   8.0463E-02   9.3342E+01  -2.2201E+03
    26    1.0400E+04   4.5263E-06   2.1108E-06  -1.3109E+02  -2.5371E+03
    27    1.0800E+04   6.8314E-02   3.1858E-02  -5.5091E+01  -2.5536E+03
    28    1.1200E+04   5.4297E-06   2.5321E-06  -3.6420E+01  -2.6275E+03
    29    1.1600E+04   2.2841E-01   1.0652E-01  -1.8523E+01  -2.7021E+03
    30    1.2000E+04   5.0107E-06   2.3367E-06   5.4387E+01  -2.7218E+03


     TOTAL HARMONIC DISTORTION =   8.2465E+01 PERCENT


          JOB CONCLUDED

**** 11/16/21 13:36:43 ******* PSpice 17.4.0 (Nov 2018) ******* ID# 0 ********

 Proyecto_Laboratorio_Electronica_Potencia


 ****     JOB STATISTICS SUMMARY


******************************************************************************



  License check-out time            =       83.80
  Total job time (using Solver 1)   =       14.91
