
**** 11/16/21 13:23:40 ******* PSpice 17.4.0 (Nov 2018) ******* ID# 0 ********

 Proyecto_Laboratorio_Electronica_Potencia


 ****     CIRCUIT DESCRIPTION


******************************************************************************



 *Cliclo convertidor Trifásico - Monofásico
 *Estudiantes:
                *Jose Fabio Navarro Naranjo 2019049626
                *Emmanuel Naranjo Blanco   2019053605
                *Adrian Dittel Retana             2019007945
 
*Definicion de parametros para la simulacion del circuito

*Entradas
.param V_in={120};  *Tension RMS de entrada por fase
.param f_in={260} ; *Frecuencia de entrada (entre 120Hz y 400Hz)
.param f_out={65} ;*Frecuencia de salida (entre 30Hz y 100Hz))
.param alfa={131}; *Angulo de disparo
.param carga={288} ;*carga a alimentar (resistiva)

*Derivaciones de las entradas
.param V_pico={V_in*sqrt(2)}; *Tension pico en la entrada
.param delay_p={alfa/(360*f_in)}; *Delay para la fase P
.param delay_n={(periodo_in/2)+delay_p}; *Delay para la fase N
.param pw={1/(3*f_in)}; *Tiempo en alto de los SCR (pulse width) 
.param periodo_in={1/f_in}; *Periodo de la seal de entrada
.param periodo_out={1/f_out}; *Periodo de la seal de salida
.param pw_pn={0.5*periodo_out}; *Tiempo en alto de las seales p y n

*Componentes del circuito

*Definicion de las entradas de fase 
Van 1 0 Sin(0 {V_pico} {f_in} 0 0 -30); *fase A
Vbn 2 0 Sin(0 {V_pico} {f_in} 0 0 -150); *fase B
Vcn 3 0 Sin(0 {V_pico} {f_in} 0 0 -270); *fase C

*Para la implemetacion de los SCR se van a utilizar diodos en combinacion con switches que en conjunto simulan el comportamiento deseado

*P Converter (Switches y Diodos)

sw1p 1 4 18 0 smod
dio1p 4 5 dmod

sw3p 2 6 19 0 smod
dio3p 6 5 dmod

sw5p 3 7 20 0 smod
dio5p 7 5 dmod

sw2p 8 9 21 0 smod
dio2p 9 1 dmod

sw4p 8 10 22 0 smod
dio4p 10 2 dmod

sw6p 8 11 23 0 smod
dio6p 11 3 dmod

*N Converter (Switches y Diodos)

sw1n 5 12 24 0 smod
dio1n 12 1 dmod

sw3n 5 13 25 0 smod
dio3n 13 2 dmod

sw5n 5 14 26 0  smod
dio5n 14 3 dmod

sw2n 1 15 27 0 smod
dio2n 15 8 dmod

sw4n 2 16 28 0 smod
dio4n 16 8 dmod

sw6n 3 17 29 0 smod
dio6n 17 8 dmod

*Carga
r_load 5 8 {carga} 

*Control para los switches

*Control P

v1p 18 30 pulse(-5 5 {delay_p} 1ns 1ns {pw} {periodo_in})
v3p 19 30 pulse(-5 5 {delay_p + periodo_in/3} 1ns 1ns {pw} {periodo_in})
v5p 20 30 pulse(-5 5 {delay_p + 2*periodo_in/3} 1ns 1ns {pw} {periodo_in})
v2p 21 30 pulse(-5 5 {delay_p + periodo_in/2} 1ns 1ns {pw} {periodo_in})
v4p 22 30 pulse(-5 5 {delay_p + 5*periodo_in/6} 1ns 1ns {pw} {periodo_in})
v6p 23 30 pulse(-5 5 {delay_p + periodo_in/6} 1ns 1ns {pw} {periodo_in})

vc_p 30 0 pulse(5 -5 0 1ns 1ns {pw_pn} {periodo_out}); *fuente para controlar la fase P

*Control N

v1n 24 31 pulse(-5 5 {delay_n} 1ns 1ns {pw} {periodo_in})
v3n 25 31 pulse(-5 5 {delay_n + periodo_in/3} 1ns 1ns {pw} {periodo_in})
v5n 26 31 pulse(-5 5 {delay_n + 2*periodo_in/3} 1ns 1ns {pw} {periodo_in})
v2n 27 31 pulse(-5 5 {delay_n + periodo_in/2} 1ns 1ns {pw} {periodo_in})
v4n 28 31 pulse(-5 5 {delay_n + 5*periodo_in/6} 1ns 1ns {pw} {periodo_in})
v6n 29 31 pulse(-5 5 {delay_n + periodo_in/6} 1ns 1ns {pw} {periodo_in})

vc_n 31 0 pulse(5 -5 {periodo_out/2} 1ns 1ns {pw_pn} {periodo_out}); *fuente para controlar la fase N

.model smod VSWITCH(Ron=0.001m)
.model dmod d
.tran .1ms 400ms 0ms .1ms uic
.FOUR {f_in} 30 I(Van)
.probe
.end

**** 11/16/21 13:23:40 ******* PSpice 17.4.0 (Nov 2018) ******* ID# 0 ********

 Proyecto_Laboratorio_Electronica_Potencia


 ****     Diode MODEL PARAMETERS


******************************************************************************




               dmod            
          IS   10.000000E-15 


**** 11/16/21 13:23:40 ******* PSpice 17.4.0 (Nov 2018) ******* ID# 0 ********

 Proyecto_Laboratorio_Electronica_Potencia


 ****     Voltage Controlled Switch MODEL PARAMETERS


******************************************************************************




               smod            
         RON    1.000000E-06 
        ROFF    1.000000E+06 
         VON    1            
        VOFF    0            


**** 11/16/21 13:23:40 ******* PSpice 17.4.0 (Nov 2018) ******* ID# 0 ********

 Proyecto_Laboratorio_Electronica_Potencia


 ****     FOURIER ANALYSIS                 TEMPERATURE =   27.000 DEG C


******************************************************************************



FOURIER COMPONENTS OF TRANSIENT RESPONSE I(Van)



 DC COMPONENT =  -7.6134E-03

 HARMONIC   FREQUENCY     FOURIER     NORMALIZED     PHASE     NORMALIZED
    NO         (HZ)      COMPONENT     COMPONENT     (DEG)     PHASE (DEG)

     1    2.6000E+02   3.6952E-01   1.0000E+00   9.2646E+01   0.0000E+00
     2    5.2000E+02   7.5200E-03   2.0351E-02  -5.1895E+01  -2.3719E+02
     3    7.8000E+02   5.1254E-03   1.3871E-02  -1.2463E+02  -4.0257E+02
     4    1.0400E+03   7.7310E-03   2.0922E-02   1.6396E+02  -2.0662E+02
     5    1.3000E+03   2.2482E-01   6.0841E-01  -7.2869E+01  -5.3610E+02
     6    1.5600E+03   1.5115E-02   4.0903E-02  -1.5793E+02  -7.1381E+02
     7    1.8200E+03   1.2852E-01   3.4780E-01  -5.1703E+01  -7.0022E+02
     8    2.0800E+03   7.0898E-03   1.9187E-02  -1.2051E+02  -8.6167E+02
     9    2.3400E+03   4.9063E-03   1.3278E-02   1.6989E+02  -6.6392E+02
    10    2.6000E+03   8.2225E-03   2.2252E-02   9.7817E+01  -8.2864E+02
    11    2.8600E+03   8.0119E-02   2.1682E-01  -1.4301E+02  -1.1621E+03
    12    3.1200E+03   1.5282E-02   4.1356E-02   1.3544E+02  -9.7631E+02
    13    3.3800E+03   6.9403E-02   1.8782E-01  -1.1303E+02  -1.3174E+03
    14    3.6400E+03   6.7315E-03   1.8217E-02   1.7495E+02  -1.1221E+03
    15    3.9000E+03   5.0763E-03   1.3738E-02   1.0145E+02  -1.2882E+03
    16    4.1600E+03   8.7701E-03   2.3734E-02   2.7256E+01  -1.4551E+03
    17    4.4200E+03   4.9053E-02   1.3275E-01   1.4249E+02  -1.4325E+03
    18    4.6800E+03   1.5577E-02   4.2155E-02   6.6628E+01  -1.6010E+03
    19    4.9400E+03   4.3738E-02   1.1837E-01  -1.7782E+02  -1.9381E+03
    20    5.2000E+03   6.4582E-03   1.7477E-02   1.0501E+02  -1.7479E+03
    21    5.4600E+03   5.0764E-03   1.3738E-02   3.0704E+01  -1.9149E+03
    22    5.7200E+03   9.4952E-03   2.5696E-02  -4.0411E+01  -2.0786E+03
    23    5.9800E+03   3.8369E-02   1.0384E-01   6.9711E+01  -2.0611E+03
    24    6.2400E+03   1.5848E-02   4.2889E-02  -1.6316E+00  -2.2251E+03
    25    6.5000E+03   3.0415E-02   8.2309E-02   1.1213E+02  -2.2040E+03
    26    6.7600E+03   6.1257E-03   1.6578E-02   3.5350E+01  -2.3734E+03
    27    7.0200E+03   5.2033E-03   1.4081E-02  -3.3845E+01  -2.5353E+03
    28    7.2800E+03   1.0698E-02   2.8952E-02  -1.0558E+02  -2.6997E+03
    29    7.5400E+03   3.2909E-02   8.9058E-02   2.2220E+00  -2.6845E+03
    30    7.8000E+03   1.6933E-02   4.5823E-02  -6.9107E+01  -2.8485E+03


     TOTAL HARMONIC DISTORTION =   8.0328E+01 PERCENT


          JOB CONCLUDED

**** 11/16/21 13:23:40 ******* PSpice 17.4.0 (Nov 2018) ******* ID# 0 ********

 Proyecto_Laboratorio_Electronica_Potencia


 ****     JOB STATISTICS SUMMARY


******************************************************************************



  License check-out time            =       20.83
  Total job time (using Solver 1)   =       10.58
