
**** 11/16/21 13:29:53 ******* PSpice 17.4.0 (Nov 2018) ******* ID# 0 ********

 Proyecto_Laboratorio_Electronica_Potencia


 ****     CIRCUIT DESCRIPTION


******************************************************************************



 *Cliclo convertidor Trifásico - Monofásico
 *Estudiantes:
                *Jose Fabio Navarro Naranjo 2019049626
                *Emmanuel Naranjo Blanco   2019053605
                *Adrian Dittel Retana             2019007945
 
*Definicion de parametros para la simulacion del circuito

*Entradas
.param V_in={120};  *Tension RMS de entrada por fase
.param f_in={400} ; *Frecuencia de entrada (entre 120Hz y 400Hz)
.param f_out={100} ;*Frecuencia de salida (entre 30Hz y 100Hz))
.param alfa={131}; *Angulo de disparo
.param carga={288} ;*carga a alimentar (resistiva)

*Derivaciones de las entradas
.param V_pico={V_in*sqrt(2)}; *Tension pico en la entrada
.param delay_p={alfa/(360*f_in)}; *Delay para la fase P
.param delay_n={(periodo_in/2)+delay_p}; *Delay para la fase N
.param pw={1/(3*f_in)}; *Tiempo en alto de los SCR (pulse width) 
.param periodo_in={1/f_in}; *Periodo de la seal de entrada
.param periodo_out={1/f_out}; *Periodo de la seal de salida
.param pw_pn={0.5*periodo_out}; *Tiempo en alto de las seales p y n

*Componentes del circuito

*Definicion de las entradas de fase 
Van 1 0 Sin(0 {V_pico} {f_in} 0 0 -30); *fase A
Vbn 2 0 Sin(0 {V_pico} {f_in} 0 0 -150); *fase B
Vcn 3 0 Sin(0 {V_pico} {f_in} 0 0 -270); *fase C

*Para la implemetacion de los SCR se van a utilizar diodos en combinacion con switches que en conjunto simulan el comportamiento deseado

*P Converter (Switches y Diodos)

sw1p 1 4 18 0 smod
dio1p 4 5 dmod

sw3p 2 6 19 0 smod
dio3p 6 5 dmod

sw5p 3 7 20 0 smod
dio5p 7 5 dmod

sw2p 8 9 21 0 smod
dio2p 9 1 dmod

sw4p 8 10 22 0 smod
dio4p 10 2 dmod

sw6p 8 11 23 0 smod
dio6p 11 3 dmod

*N Converter (Switches y Diodos)

sw1n 5 12 24 0 smod
dio1n 12 1 dmod

sw3n 5 13 25 0 smod
dio3n 13 2 dmod

sw5n 5 14 26 0  smod
dio5n 14 3 dmod

sw2n 1 15 27 0 smod
dio2n 15 8 dmod

sw4n 2 16 28 0 smod
dio4n 16 8 dmod

sw6n 3 17 29 0 smod
dio6n 17 8 dmod

*Carga
r_load 5 8 {carga} 

*Control para los switches

*Control P

v1p 18 30 pulse(-5 5 {delay_p} 1ns 1ns {pw} {periodo_in})
v3p 19 30 pulse(-5 5 {delay_p + periodo_in/3} 1ns 1ns {pw} {periodo_in})
v5p 20 30 pulse(-5 5 {delay_p + 2*periodo_in/3} 1ns 1ns {pw} {periodo_in})
v2p 21 30 pulse(-5 5 {delay_p + periodo_in/2} 1ns 1ns {pw} {periodo_in})
v4p 22 30 pulse(-5 5 {delay_p + 5*periodo_in/6} 1ns 1ns {pw} {periodo_in})
v6p 23 30 pulse(-5 5 {delay_p + periodo_in/6} 1ns 1ns {pw} {periodo_in})

vc_p 30 0 pulse(5 -5 0 1ns 1ns {pw_pn} {periodo_out}); *fuente para controlar la fase P

*Control N

v1n 24 31 pulse(-5 5 {delay_n} 1ns 1ns {pw} {periodo_in})
v3n 25 31 pulse(-5 5 {delay_n + periodo_in/3} 1ns 1ns {pw} {periodo_in})
v5n 26 31 pulse(-5 5 {delay_n + 2*periodo_in/3} 1ns 1ns {pw} {periodo_in})
v2n 27 31 pulse(-5 5 {delay_n + periodo_in/2} 1ns 1ns {pw} {periodo_in})
v4n 28 31 pulse(-5 5 {delay_n + 5*periodo_in/6} 1ns 1ns {pw} {periodo_in})
v6n 29 31 pulse(-5 5 {delay_n + periodo_in/6} 1ns 1ns {pw} {periodo_in})

vc_n 31 0 pulse(5 -5 {periodo_out/2} 1ns 1ns {pw_pn} {periodo_out}); *fuente para controlar la fase N

.model smod VSWITCH(Ron=0.001m)
.model dmod d
.tran .1ms 400ms 0ms .1ms uic
.FOUR {f_in} 30 I(Van)
.probe
.end

**** 11/16/21 13:29:53 ******* PSpice 17.4.0 (Nov 2018) ******* ID# 0 ********

 Proyecto_Laboratorio_Electronica_Potencia


 ****     Diode MODEL PARAMETERS


******************************************************************************




               dmod            
          IS   10.000000E-15 


**** 11/16/21 13:29:53 ******* PSpice 17.4.0 (Nov 2018) ******* ID# 0 ********

 Proyecto_Laboratorio_Electronica_Potencia


 ****     Voltage Controlled Switch MODEL PARAMETERS


******************************************************************************




               smod            
         RON    1.000000E-06 
        ROFF    1.000000E+06 
         VON    1            
        VOFF    0            


**** 11/16/21 13:29:53 ******* PSpice 17.4.0 (Nov 2018) ******* ID# 0 ********

 Proyecto_Laboratorio_Electronica_Potencia


 ****     FOURIER ANALYSIS                 TEMPERATURE =   27.000 DEG C


******************************************************************************



FOURIER COMPONENTS OF TRANSIENT RESPONSE I(Van)



 DC COMPONENT =   3.6231E-07

 HARMONIC   FREQUENCY     FOURIER     NORMALIZED     PHASE     NORMALIZED
    NO         (HZ)      COMPONENT     COMPONENT     (DEG)     PHASE (DEG)

     1    4.0000E+02   3.5801E-01   1.0000E+00   9.2585E+01   0.0000E+00
     2    8.0000E+02   2.9895E-07   8.3503E-07  -6.6787E+01  -2.5196E+02
     3    1.2000E+03   1.0242E-02   2.8608E-02  -1.2542E+02  -4.0318E+02
     4    1.6000E+03   1.4610E-06   4.0809E-06  -5.3865E+01  -4.2420E+02
     5    2.0000E+03   2.2494E-01   6.2829E-01  -7.5587E+01  -5.3851E+02
     6    2.4000E+03   8.1482E-07   2.2760E-06   2.4467E+00  -5.5306E+02
     7    2.8000E+03   1.2703E-01   3.5481E-01  -5.6180E+01  -7.0427E+02
     8    3.2000E+03   9.3174E-07   2.6025E-06   1.0434E+02  -6.3634E+02
     9    3.6000E+03   1.0090E-02   2.8184E-02   1.6298E+02  -6.7029E+02
    10    4.0000E+03   7.0267E-07   1.9627E-06  -1.4395E+02  -1.0698E+03
    11    4.4000E+03   8.1499E-02   2.2764E-01  -1.5120E+02  -1.1696E+03
    12    4.8000E+03   9.3733E-07   2.6182E-06  -7.3308E+01  -1.1843E+03
    13    5.2000E+03   6.7203E-02   1.8771E-01  -1.2120E+02  -1.3248E+03
    14    5.6000E+03   8.9528E-07   2.5007E-06   3.8084E+01  -1.2581E+03
    15    6.0000E+03   1.0143E-02   2.8332E-02   8.9634E+01  -1.2991E+03
    16    6.4000E+03   7.5799E-07   2.1172E-06   1.1042E+02  -1.3709E+03
    17    6.8000E+03   5.1897E-02   1.4496E-01   1.2894E+02  -1.4450E+03
    18    7.2000E+03   9.4373E-07   2.6360E-06  -1.4404E+02  -1.8106E+03
    19    7.6000E+03   4.0787E-02   1.1393E-01   1.6944E+02  -1.5897E+03
    20    8.0000E+03   6.8082E-07   1.9017E-06  -4.3725E+01  -1.8954E+03
    21    8.4000E+03   1.0658E-02   2.9771E-02   1.6248E+01  -1.9280E+03
    22    8.8000E+03   9.9299E-07   2.7736E-06   3.4732E+01  -2.0021E+03
    23    9.2000E+03   4.3223E-02   1.2073E-01   5.3224E+01  -2.0762E+03
    24    9.6000E+03   8.0963E-07   2.2615E-06   1.4139E+02  -2.0807E+03
    25    1.0000E+04   2.8772E-02   8.0367E-02   9.3364E+01  -2.2213E+03
    26    1.0400E+04   7.2780E-07   2.0329E-06  -1.3907E+02  -2.5463E+03
    27    1.0800E+04   1.1390E-02   3.1816E-02  -5.5099E+01  -2.5549E+03
    28    1.1200E+04   1.0084E-06   2.8167E-06  -3.3349E+01  -2.6257E+03
    29    1.1600E+04   3.8094E-02   1.0640E-01  -1.8536E+01  -2.7035E+03
    30    1.2000E+04   7.1438E-07   1.9954E-06   5.3876E+01  -2.7237E+03


     TOTAL HARMONIC DISTORTION =   8.2362E+01 PERCENT


          JOB CONCLUDED

**** 11/16/21 13:29:53 ******* PSpice 17.4.0 (Nov 2018) ******* ID# 0 ********

 Proyecto_Laboratorio_Electronica_Potencia


 ****     JOB STATISTICS SUMMARY


******************************************************************************



  License check-out time            =       53.05
  Total job time (using Solver 1)   =       16.33
